/*--------------------------------*- C++ -*----------------------------------*\
|    =========                 |                                              |
|    \\      /  F ield         | foam-extend: Open Source CFD                 |
|     \\    /   O peration     | Version:     4.1                             |
|      \\  /    A nd           | Web:         http://www.foam-extend.org      |
|       \\/     M anipulation  |                                              |
\*---------------------------------------------------------------------------*/
FoamFile
{
    version     2.0;
    format      ascii;
    class       dictionary;
    location    "constant";
    object      turbulenceProperties;
}
// * * * * * * * * * * * * * * * * * * * * * * * * * * * * * * * * * * * * * //

// foam-extend 4.1 convention: this file only selects the turbulence family;
// the specific RAS model is specified in constant/RASProperties.

simulationType      RASModel;

// ************************************************************************* //
