/*--------------------------------*- C++ -*----------------------------------*\
|    =========                 |                                              |
|    \\      /  F ield         | foam-extend: Open Source CFD                 |
|     \\    /   O peration     | Version:     4.1                             |
|      \\  /    A nd           | Web:         http://www.foam-extend.org      |
|       \\/     M anipulation  |                                              |
\*---------------------------------------------------------------------------*/
FoamFile
{
    version     2.0;
    format      ascii;
    class       dictionary;
    location    "constant/polyMesh";
    object      blockMeshDict;
}
// * * * * * * * * * * * * * * * * * * * * * * * * * * * * * * * * * * * * * //

// 2-D dental treatment room: 4.0 m (x) x 3.0 m (y) x 0.01 m (z).
//
// Paper geometry (Sec. II):
//   Ceiling supply inlet  : x = [1.90, 2.10] m  (0.20 m wide, centred x=2.0 m)
//   Side pressure-outlet  : x = 4.0 m, y = [1.40, 1.60] m  (right wall, mid-height)
//   Dentist obstacle      : 0.20 m wide x 1.40 m tall, centred x=1.50 m  -> x=[1.40,1.60], y=[0,1.40]
//   Patient obstacle      : 0.20 m wide x 0.80 m tall, centred (x=2.50,y=0.40) -> x=[2.40,2.60], y=[0,0.80]
//   Particle injection    : point source at (2.40, 0.90, 0.005) - oral cavity
//   Breathing zone        : x=[1.30,1.80], y=[1.525,1.675] (evaluated in post-proc)
//
// Mesh: 80 x 100 x 1 = 8000 cells, uniform ~0.05 m x 0.03 m.
// Obstacles are carved out by NOT defining those blocks; their boundary
// faces are listed explicitly as wall patches.
//
// X-breakpoints:  0.00  1.40  1.60  1.90  2.10  2.40  2.60  4.00
// X-cell counts:    28     4     6     4     6     4    28         = 80
//
// Y-breakpoints:  0.00  0.80  1.40  1.60  3.00
// Y-cell counts:    27    20     7    46              = 100
//
// Vertex index formula (front plane z=0):
//   xi in {0..7}  <-> x in {0.00, 1.40, 1.60, 1.90, 2.10, 2.40, 2.60, 4.00}
//   yi in {0..4}  <-> y in {0.00, 0.80, 1.40, 1.60, 3.00}
//   index = yi*8 + xi   (back plane: add 40)

convertToMeters 1.0;

vertices
(
    // ---- front plane (z = 0) ----
    // yi=0  y=0.00
    (0.00  0.00  0.000)   //  0
    (1.40  0.00  0.000)   //  1
    (1.60  0.00  0.000)   //  2
    (1.90  0.00  0.000)   //  3
    (2.10  0.00  0.000)   //  4
    (2.40  0.00  0.000)   //  5
    (2.60  0.00  0.000)   //  6
    (4.00  0.00  0.000)   //  7

    // yi=1  y=0.80
    (0.00  0.80  0.000)   //  8
    (1.40  0.80  0.000)   //  9
    (1.60  0.80  0.000)   // 10
    (1.90  0.80  0.000)   // 11
    (2.10  0.80  0.000)   // 12
    (2.40  0.80  0.000)   // 13
    (2.60  0.80  0.000)   // 14
    (4.00  0.80  0.000)   // 15

    // yi=2  y=1.40
    (0.00  1.40  0.000)   // 16
    (1.40  1.40  0.000)   // 17
    (1.60  1.40  0.000)   // 18
    (1.90  1.40  0.000)   // 19
    (2.10  1.40  0.000)   // 20
    (2.40  1.40  0.000)   // 21
    (2.60  1.40  0.000)   // 22
    (4.00  1.40  0.000)   // 23

    // yi=3  y=1.60
    (0.00  1.60  0.000)   // 24
    (1.40  1.60  0.000)   // 25
    (1.60  1.60  0.000)   // 26
    (1.90  1.60  0.000)   // 27
    (2.10  1.60  0.000)   // 28
    (2.40  1.60  0.000)   // 29
    (2.60  1.60  0.000)   // 30
    (4.00  1.60  0.000)   // 31

    // yi=4  y=3.00
    (0.00  3.00  0.000)   // 32
    (1.40  3.00  0.000)   // 33
    (1.60  3.00  0.000)   // 34
    (1.90  3.00  0.000)   // 35
    (2.10  3.00  0.000)   // 36
    (2.40  3.00  0.000)   // 37
    (2.60  3.00  0.000)   // 38
    (4.00  3.00  0.000)   // 39

    // ---- back plane (z = 0.01) — indices 40–79 ----
    // yi=0
    (0.00  0.00  0.010)   // 40
    (1.40  0.00  0.010)   // 41
    (1.60  0.00  0.010)   // 42
    (1.90  0.00  0.010)   // 43
    (2.10  0.00  0.010)   // 44
    (2.40  0.00  0.010)   // 45
    (2.60  0.00  0.010)   // 46
    (4.00  0.00  0.010)   // 47

    // yi=1
    (0.00  0.80  0.010)   // 48
    (1.40  0.80  0.010)   // 49
    (1.60  0.80  0.010)   // 50
    (1.90  0.80  0.010)   // 51
    (2.10  0.80  0.010)   // 52
    (2.40  0.80  0.010)   // 53
    (2.60  0.80  0.010)   // 54
    (4.00  0.80  0.010)   // 55

    // yi=2
    (0.00  1.40  0.010)   // 56
    (1.40  1.40  0.010)   // 57
    (1.60  1.40  0.010)   // 58
    (1.90  1.40  0.010)   // 59
    (2.10  1.40  0.010)   // 60
    (2.40  1.40  0.010)   // 61
    (2.60  1.40  0.010)   // 62
    (4.00  1.40  0.010)   // 63

    // yi=3
    (0.00  1.60  0.010)   // 64
    (1.40  1.60  0.010)   // 65
    (1.60  1.60  0.010)   // 66
    (1.90  1.60  0.010)   // 67
    (2.10  1.60  0.010)   // 68
    (2.40  1.60  0.010)   // 69
    (2.60  1.60  0.010)   // 70
    (4.00  1.60  0.010)   // 71

    // yi=4
    (0.00  3.00  0.010)   // 72
    (1.40  3.00  0.010)   // 73
    (1.60  3.00  0.010)   // 74
    (1.90  3.00  0.010)   // 75
    (2.10  3.00  0.010)   // 76
    (2.40  3.00  0.010)   // 77
    (2.60  3.00  0.010)   // 78
    (4.00  3.00  0.010)   // 79
);

// -------------------------------------------------------------------------
// 25 FLUID blocks (obstacle blocks are intentionally omitted):
//   Omitted: dentist row0 [x=1.4-1.6, y=0.0-0.8]  hex(1,2,10,9, 41,42,50,49)
//            dentist row1 [x=1.4-1.6, y=0.8-1.4]  hex(9,10,18,17, 49,50,58,57)
//            patient row0 [x=2.4-2.6, y=0.0-0.8]  hex(5,6,14,13, 45,46,54,53)
// -------------------------------------------------------------------------
blocks
(
    // === ROW 0 : y=[0.00, 0.80], ny=27 ===
    hex ( 0  1  9  8  40 41 49 48) (28 27 1) simpleGrading (1 1 1) // B0  x=[0.00,1.40]
    hex ( 2  3 11 10  42 43 51 50) ( 6 27 1) simpleGrading (1 1 1) // B1  x=[1.60,1.90]
    hex ( 3  4 12 11  43 44 52 51) ( 4 27 1) simpleGrading (1 1 1) // B2  x=[1.90,2.10]
    hex ( 4  5 13 12  44 45 53 52) ( 6 27 1) simpleGrading (1 1 1) // B3  x=[2.10,2.40]
    hex ( 6  7 15 14  46 47 55 54) (28 27 1) simpleGrading (1 1 1) // B4  x=[2.60,4.00]

    // === ROW 1 : y=[0.80, 1.40], ny=20 ===
    hex ( 8  9 17 16  48 49 57 56) (28 20 1) simpleGrading (1 1 1) // B5  x=[0.00,1.40]
    hex (10 11 19 18  50 51 59 58) ( 6 20 1) simpleGrading (1 1 1) // B6  x=[1.60,1.90]
    hex (11 12 20 19  51 52 60 59) ( 4 20 1) simpleGrading (1 1 1) // B7  x=[1.90,2.10]
    hex (12 13 21 20  52 53 61 60) ( 6 20 1) simpleGrading (1 1 1) // B8  x=[2.10,2.40]
    hex (13 14 22 21  53 54 62 61) ( 4 20 1) simpleGrading (1 1 1) // B9  x=[2.40,2.60]
    hex (14 15 23 22  54 55 63 62) (28 20 1) simpleGrading (1 1 1) // B10 x=[2.60,4.00]

    // === ROW 2 : y=[1.40, 1.60], ny=7 ===
    hex (16 17 25 24  56 57 65 64) (28  7 1) simpleGrading (1 1 1) // B11 x=[0.00,1.40]
    hex (17 18 26 25  57 58 66 65) ( 4  7 1) simpleGrading (1 1 1) // B12 x=[1.40,1.60] above dentist
    hex (18 19 27 26  58 59 67 66) ( 6  7 1) simpleGrading (1 1 1) // B13 x=[1.60,1.90]
    hex (19 20 28 27  59 60 68 67) ( 4  7 1) simpleGrading (1 1 1) // B14 x=[1.90,2.10]
    hex (20 21 29 28  60 61 69 68) ( 6  7 1) simpleGrading (1 1 1) // B15 x=[2.10,2.40]
    hex (21 22 30 29  61 62 70 69) ( 4  7 1) simpleGrading (1 1 1) // B16 x=[2.40,2.60]
    hex (22 23 31 30  62 63 71 70) (28  7 1) simpleGrading (1 1 1) // B17 x=[2.60,4.00]

    // === ROW 3 : y=[1.60, 3.00], ny=46 ===
    hex (24 25 33 32  64 65 73 72) (28 46 1) simpleGrading (1 1 1) // B18 x=[0.00,1.40]
    hex (25 26 34 33  65 66 74 73) ( 4 46 1) simpleGrading (1 1 1) // B19 x=[1.40,1.60]
    hex (26 27 35 34  66 67 75 74) ( 6 46 1) simpleGrading (1 1 1) // B20 x=[1.60,1.90]
    hex (27 28 36 35  67 68 76 75) ( 4 46 1) simpleGrading (1 1 1) // B21 x=[1.90,2.10] <- INLET TOP
    hex (28 29 37 36  68 69 77 76) ( 6 46 1) simpleGrading (1 1 1) // B22 x=[2.10,2.40]
    hex (29 30 38 37  69 70 78 77) ( 4 46 1) simpleGrading (1 1 1) // B23 x=[2.40,2.60]
    hex (30 31 39 38  70 71 79 78) (28 46 1) simpleGrading (1 1 1) // B24 x=[2.60,4.00]
);

edges
(
);

patches
(
    // -----------------------------------------------------------------
    // Ceiling HVAC supply: 0.2 m wide, x=[1.90,2.10], y=3.0 (top of B21)
    // -----------------------------------------------------------------
    patch airInlet
    (
        ( 35 36 76 75 )   // top face of B21
    )

    // -----------------------------------------------------------------
    // Side-wall pressure outlet: x=4.0, y=[1.40,1.60] (right face of B17)
    // -----------------------------------------------------------------
    patch airOutlet
    (
        ( 23 31 71 63 )   // right face of B17
    )

    // -----------------------------------------------------------------
    // Floor  (y=0, bottom faces of Row-0 blocks)
    // -----------------------------------------------------------------
    wall floor
    (
        (  0  1 41 40 )   // B0 bottom
        (  2  3 43 42 )   // B1 bottom
        (  3  4 44 43 )   // B2 bottom
        (  4  5 45 44 )   // B3 bottom
        (  6  7 47 46 )   // B4 bottom
    )

    // -----------------------------------------------------------------
    // Ceiling walls (y=3.0, all except inlet)
    // -----------------------------------------------------------------
    wall ceiling
    (
        ( 32 33 73 72 )   // B18 top  x=[0.00,1.40]
        ( 33 34 74 73 )   // B19 top  x=[1.40,1.60]
        ( 34 35 75 74 )   // B20 top  x=[1.60,1.90]
        ( 36 37 77 76 )   // B22 top  x=[2.10,2.40]
        ( 37 38 78 77 )   // B23 top  x=[2.40,2.60]
        ( 38 39 79 78 )   // B24 top  x=[2.60,4.00]
    )

    // -----------------------------------------------------------------
    // Left wall (x=0)
    // -----------------------------------------------------------------
    wall leftWall
    (
        (  0 40 48  8 )   // B0  left
        (  8 48 56 16 )   // B5  left
        ( 16 56 64 24 )   // B11 left
        ( 24 64 72 32 )   // B18 left
    )

    // -----------------------------------------------------------------
    // Right wall (x=4.0, excluding outlet band y=[1.40,1.60])
    // -----------------------------------------------------------------
    wall rightWall
    (
        (  7 15 55 47 )   // B4  right  y=[0.00,0.80]
        ( 15 23 63 55 )   // B10 right  y=[0.80,1.40]
        ( 31 39 79 71 )   // B24 right  y=[1.60,3.00]
    )

    // -----------------------------------------------------------------
    // Dentist obstacle walls (x=[1.40,1.60], y=[0,1.40])
    //   Left face  (x=1.40) : right faces of B0 and B5
    //   Right face (x=1.60) : left  faces of B1 and B6
    //   Top face   (y=1.40) : bottom face of B12
    // -----------------------------------------------------------------
    wall dentistObstacle
    (
        (  1  9 49 41 )   // B0  right face  y=[0.00,0.80]
        (  9 17 57 49 )   // B5  right face  y=[0.80,1.40]
        (  2 42 50 10 )   // B1  left  face  y=[0.00,0.80]
        ( 10 50 58 18 )   // B6  left  face  y=[0.80,1.40]
        ( 17 18 58 57 )   // B12 bottom face y=1.40
    )

    // -----------------------------------------------------------------
    // Patient obstacle walls (x=[2.40,2.60], y=[0,0.80])
    //   Left face  (x=2.40) : right face of B3
    //   Right face (x=2.60) : left  face of B4
    //   Top face   (y=0.80) : bottom face of B9
    // -----------------------------------------------------------------
    wall patientObstacle
    (
        (  5 13 53 45 )   // B3 right face  y=[0.00,0.80]
        (  6 46 54 14 )   // B4 left  face  y=[0.00,0.80]
        ( 13 14 54 53 )   // B9 bottom face y=0.80
    )

    // -----------------------------------------------------------------
    // Empty (pseudo-2D front and back planes)
    // -----------------------------------------------------------------
    empty frontAndBack
    (
        // --- front faces (z=0) ---
        (  0  8  9  1 )   // B0
        (  2 10 11  3 )   // B1
        (  3 11 12  4 )   // B2
        (  4 12 13  5 )   // B3
        (  6 14 15  7 )   // B4

        (  8 16 17  9 )   // B5
        ( 10 18 19 11 )   // B6
        ( 11 19 20 12 )   // B7
        ( 12 20 21 13 )   // B8
        ( 13 21 22 14 )   // B9
        ( 14 22 23 15 )   // B10

        ( 16 24 25 17 )   // B11
        ( 17 25 26 18 )   // B12
        ( 18 26 27 19 )   // B13
        ( 19 27 28 20 )   // B14
        ( 20 28 29 21 )   // B15
        ( 21 29 30 22 )   // B16
        ( 22 30 31 23 )   // B17

        ( 24 32 33 25 )   // B18
        ( 25 33 34 26 )   // B19
        ( 26 34 35 27 )   // B20
        ( 27 35 36 28 )   // B21
        ( 28 36 37 29 )   // B22
        ( 29 37 38 30 )   // B23
        ( 30 38 39 31 )   // B24

        // --- back faces (z=0.01) ---
        ( 40 41 49 48 )   // B0
        ( 42 43 51 50 )   // B1
        ( 43 44 52 51 )   // B2
        ( 44 45 53 52 )   // B3
        ( 46 47 55 54 )   // B4

        ( 48 49 57 56 )   // B5
        ( 50 51 59 58 )   // B6
        ( 51 52 60 59 )   // B7
        ( 52 53 61 60 )   // B8
        ( 53 54 62 61 )   // B9
        ( 54 55 63 62 )   // B10

        ( 56 57 65 64 )   // B11
        ( 57 58 66 65 )   // B12
        ( 58 59 67 66 )   // B13
        ( 59 60 68 67 )   // B14
        ( 60 61 69 68 )   // B15
        ( 61 62 70 69 )   // B16
        ( 62 63 71 70 )   // B17

        ( 64 65 73 72 )   // B18
        ( 65 66 74 73 )   // B19
        ( 66 67 75 74 )   // B20
        ( 67 68 76 75 )   // B21
        ( 68 69 77 76 )   // B22
        ( 69 70 78 77 )   // B23
        ( 70 71 79 78 )   // B24
    )
);

mergePatchPairs
(
);

// ************************************************************************* //
